
**** 12/17/25 23:21:26 ******* PSpice Lite (March 2016) ******* ID# 10813 ****

 ** Profile: "SCHEMATIC1-test1234"  [ c:\users\skypv\desktop\p1_2025_433d_dinca_matei_gsd_tema_11_orcad\p1_2025_433d_dinca_matei_gsd_


 ****     CIRCUIT DESCRIPTION


******************************************************************************




** Creating circuit file "test1234.cir" 
** WARNING: THIS AUTOMATICALLY GENERATED FILE MAY BE OVERWRITTEN BY SUBSEQUENT SIMULATIONS

*Libraries: 
* Profile Libraries :
* Local Libraries :
.LIB "../../../MovedFiles/bc846b.lib" 
.LIB "../../../MovedFiles/bc856b.lib" 
* From [PSPICE NETLIST] section of C:\Users\skypv\AppData\Roaming\SPB_Data\cdssetup\OrCAD_PSpice\17.2.0\PSpice.ini file:
.lib "nomd.lib" 

*Analysis directives: 
.TRAN  0 2ms 0 1u SKIPBP 
.OPTIONS ADVCONV
.PROBE64 V(alias(*)) I(alias(*)) W(alias(*)) D(alias(*)) NOISE(alias(*)) 
.INC "..\SCHEMATIC1.net" 



**** INCLUDING SCHEMATIC1.net ****
* source TEST123
V_V3         0 N05979 9
Q_Q4         N05673 N05593 N05491 QBC856B 
Q_Q2         N05491 N05471 N07661 QBC856B 
Q_Q5         N05677 N06063 N05491 QBC856B 
V_V2         N05393 0 9
Q_Q3         N05495 N05471 N07657 QBC856B 
Q_Q6         N05673 N05673 N058292 QBC846B 
R_R5         N05979 N058292  100 TC=0,0 
R_R10         N056251 N10364  22k TC=0,0 
R_R11         N06063 N10364  10k TC=0,0 
R_RL         N38727 N08450  10k TC=0,0 
R_R6         N05979 N058472  100 TC=0,0 
R_R12         0 N06063  10k TC=0,0 
Q_Q8         N05495 N05677 N55066 QBC846B 
Q_Q7         N05677 N05673 N058472 QBC846B 
R_R7         N05593 N10360  1k TC=0,0 
C_C1         0 N05593  10n  TC=0,0 
R_R2         N07661 N05393  100 TC=0,0 
R_R3         N07657 N05393  100 TC=0,0 
X_POT1         0 N08450 N31671 POT PARAMS: SET=0 VALUE=10k
X_POT2         N10360 N10364 N10364 POT PARAMS: SET=1 VALUE=10k
R_R9         N106561 N05393  220 TC=0,0 
R_R1         N219601 N05393  100 TC=0,0 
Q_Q1         N05471 N05471 N219601 QBC856B 
R_R4         N05979 N05471  22k TC=0,0 
R_R8         N10360 N10364  10k TC=0,0 
R_R13         N315341 N056251  6.8k TC=0,0 
Q_Q9         N05393 N05495 N10364 QBC846B 
Q_Q10         N05979 N05495 N10364 QBC856B 
X_D2         N41215 0 LED PARAMS: IS=8.8013e-028 RS=2  BV=5 IBV=20e-3         
R_RL1         0 N38727  1k TC=0,0 
R_R15         N31671 N315341  2.2k TC=0,0 
R_R14         N41215 N106561  51 TC=0,0 
R_R17         N504841 N50470  51 TC=0,0 
X_D3         0 N504841 LED PARAMS: IS=8.8013e-028 RS=2  BV=5 IBV=20e-3         
R_R16         N50470 N05979  220 TC=0,0 
Q_Q11         N55066 N55066 N05979 QBC846B 

**** RESUMING test1234.cir ****
.END

**** 12/17/25 23:21:26 ******* PSpice Lite (March 2016) ******* ID# 10813 ****

 ** Profile: "SCHEMATIC1-test1234"  [ c:\users\skypv\desktop\p1_2025_433d_dinca_matei_gsd_tema_11_orcad\p1_2025_433d_dinca_matei_gsd_


 ****     Diode MODEL PARAMETERS


******************************************************************************




               X_D2.model201   X_D3.model201   
          IS  880.130000E-30  880.130000E-30 
           N    2               2            
          BV    5               5            
         IBV     .02             .02         
          RS    2               2            


**** 12/17/25 23:21:26 ******* PSpice Lite (March 2016) ******* ID# 10813 ****

 ** Profile: "SCHEMATIC1-test1234"  [ c:\users\skypv\desktop\p1_2025_433d_dinca_matei_gsd_tema_11_orcad\p1_2025_433d_dinca_matei_gsd_


 ****     BJT MODEL PARAMETERS


******************************************************************************




               QBC846B         QBC856B         
               NPN             PNP             
       LEVEL    1               1            
          IS   18.220000E-15   20.140000E-15 
          BF  324.4           315.3          
          NF     .9932           .9974       
         VAF   82              39.15         
         IKF     .109            .079        
         ISE  289.400000E-18    6.578000E-15 
          NE    1.4             1.45         
          BR    8.29            8.68         
          NR     .9931           .9952       
         VAR   17.9             9.5          
         IKR     .09             .09         
         ISC    9.982000E-12   16.330000E-15 
          NC    1.763           1.15         
         ISS    0               0            
          RB   10              10            
         RBM    5               5.000000E-06 
         IRB    5.000000E-06    5.000000E-06 
          RE     .649            .663        
          RC     .7014           .718        
         CJE   12.440000E-12   11.350000E-12 
         VJE     .7579           .7071       
         MJE     .3656           .3808       
         CJC    3.347000E-12    6.395000E-12 
         VJC     .5463           .4951       
         MJC     .391            .44         
        XCJC     .6193           .6288       
         CJS    0               0            
         VJS     .75             .75         
         MJS     .333            .333        
          FC     .979            .9059       
          TF  490.800000E-12  654.600000E-12 
         XTF    9.51            5.387        
         VTF    2.927           6.245        
         ITF     .3131           .2108       
          TR   90.000000E-09   55.000000E-09 
          KF    0               0            
          AF    1               1            
          CN    2.42            2.2          
           D     .87             .52         



          JOB CONCLUDED

**** 12/17/25 23:21:26 ******* PSpice Lite (March 2016) ******* ID# 10813 ****

 ** Profile: "SCHEMATIC1-test1234"  [ c:\users\skypv\desktop\p1_2025_433d_dinca_matei_gsd_tema_11_orcad\p1_2025_433d_dinca_matei_gsd_


 ****     JOB STATISTICS SUMMARY


******************************************************************************



  Total job time (using Solver 1)   =        1.94
